    6
FINAL HEAT OF FORMATION =        0.000000
 C     0.000000     0.000000     0.000000
 H     0.000000     0.000000     1.089000
 H     0.943101     0.000000    -0.544500
 C    -1.156144     0.000000    -0.667500
 H    -2.099246     0.000000    -0.123000
 H    -1.156144     0.000000    -1.756500
